92
Pb4 I16 C24 N8 H40 
Pb   8.25659386   5.54287110   9.12079373
Pb   3.69544379   3.23582877   19.03577767
Pb   4.12054298   3.24109599   2.27449732
Pb   8.26662839   7.62517871   19.03815727
I   8.25659386   5.54287110   9.12079373
I   3.69544379   3.23582877   19.03577767
I   4.12054298   3.24109599   2.27449732
I   8.26662839   7.62517871   19.03815727
I   8.25659386   5.54287110   9.12079373
I   3.69544379   3.23582877   19.03577767
I   4.12054298   3.24109599   2.27449732
I   8.68169305   5.53760388   12.18948126
I   6.27705473   8.04567844   9.32801689
I   1.71590466   0.73302144   19.24300083
I   5.75617139   3.38594454   9.39742178
I   1.19502132   5.39275533   19.31240572
I   4.11324514   1.11665062   5.90139844
I   8.67439521   7.66204925   15.81638238
I   7.84244144   5.49897760   5.89941545
I   3.28129136   3.27972227   15.81439939
C   8.25659386   5.54287110   9.12079373
C   3.69544379   3.23582877   19.03577767
C   4.12054298   3.24109599   2.27449732
C   8.26662839   7.62517871   19.03815727
C   8.25659386   5.54287110   9.12079373
C   3.69544379   3.23582877   19.03577767
C   4.12054298   3.24109599   2.27449732
C   8.68169305   5.53760388   12.18948126
C   6.27705473   8.04567844   9.32801689
C   1.71590466   0.73302144   19.24300083
C   5.75617139   3.38594454   9.39742178
C   1.19502132   5.39275533   19.31240572
C   4.11324514   1.11665062   5.90139844
C   8.67439521   7.66204925   15.81638238
C   7.84244144   5.49897760   5.89941545
C   3.28129136   3.27972227   15.81439939
C   3.28311582   1.15966625   12.19939624
C   7.84426590   7.61903362   2.28441230
C   1.57086009   7.60586557   8.79062476
C   8.26662839   7.62517871   19.03815727
C   8.25659386   5.54287110   9.12079373
C   3.69544379   3.23582877   19.03577767
C   4.12054298   3.24109599   2.27449732
C   8.68169305   5.53760388   12.18948126
N   8.25659386   5.54287110   9.12079373
N   3.69544379   3.23582877   19.03577767
N   4.12054298   3.24109599   2.27449732
N   8.26662839   7.62517871   19.03815727
N   8.25659386   5.54287110   9.12079373
N   3.69544379   3.23582877   19.03577767
N   4.12054298   3.24109599   2.27449732
N   8.68169305   5.53760388   12.18948126
H   8.25659386   5.54287110   9.12079373
H   3.69544379   3.23582877   19.03577767
H   4.12054298   3.24109599   2.27449732
H   8.26662839   7.62517871   19.03815727
H   8.25659386   5.54287110   9.12079373
H   3.69544379   3.23582877   19.03577767
H   4.12054298   3.24109599   2.27449732
H   8.68169305   5.53760388   12.18948126
H   6.27705473   8.04567844   9.32801689
H   1.71590466   0.73302144   19.24300083
H   5.75617139   3.38594454   9.39742178
H   1.19502132   5.39275533   19.31240572
H   4.11324514   1.11665062   5.90139844
H   8.67439521   7.66204925   15.81638238
H   7.84244144   5.49897760   5.89941545
H   3.28129136   3.27972227   15.81439939
H   3.28311582   1.15966625   12.19939624
H   7.84426590   7.61903362   2.28441230
H   1.57086009   7.60586557   8.79062476
H   8.26662839   7.62517871   19.03815727
H   8.25659386   5.54287110   9.12079373
H   3.69544379   3.23582877   19.03577767
H   4.12054298   3.24109599   2.27449732
H   8.68169305   5.53760388   12.18948126
H   6.27705473   8.04567844   9.32801689
H   1.71590466   0.73302144   19.24300083
H   5.75617139   3.38594454   9.39742178
H   1.19502132   5.39275533   19.31240572
H   4.11324514   1.11665062   5.90139844
H   8.67439521   7.66204925   15.81638238
H   7.84244144   5.49897760   5.89941545
H   3.28129136   3.27972227   15.81439939
H   3.28311582   1.15966625   12.19939624
H   7.84426590   7.61903362   2.28441230
H   1.57086009   7.60586557   8.79062476
H   6.13201016   1.17283430   18.70560870
H   1.33276805   3.35521909   8.80053975
H   5.89391813   5.42348078   18.71552369
H   7.81781123   2.14200277   4.38242290
H   3.25666115   6.63669711   14.29740684
